*************************************************
   ChampSim Multicore Out-of-Order Simulator
   Last compiled: Jan 17 2024 21:52:34
*************************************************

trace_0 ./traces/462.libquantum-714B.champsimtrace.xz
CPU 0 L1D IPCP prefetcher
CPU 0 L2C IPCP prefetcher
Initialize BIP state

warmup_instructions 50000000
simulation_instructions 100000000
champsim_seed 222

num_cpus 1
cpu_freq 4000
dram_io_freq 2400
page_size 4096
block_size 64
max_read_per_cycle 8
max_fill_per_cycle 1
dram_channels 1
dram_ranks 1
dram_banks 8
dram_rows 65536
dram_columns 128
dram_row_size 8
dram_size 4096
dram_pages 1048576

fetch_width 6
decode_width 6
exec_width 4
lq_width 2
sq_width 2
retire_width 4
scheduler_size 128
branch_mispredict_penalty 20
rob_size 256
lq_size 72
sq_size 56
num_instr_destinations_sparc 4
num_instr_destinations 2
num_instr_sources 4

itlb_set 16
itlb_way 8
itlb_rq_size 16
itlb_wq_size 16
itlb_pq_size 0
itlb_mshr_size 8
itlb_latency 1

dtlb_set 16
dtlb_way 4
dtlb_rq_size 16
dtlb_wq_size 16
dtlb_pq_size 0
dtlb_mshr_size 8
dtlb_latency 1

stlb_set 128
stlb_way 12
stlb_rq_size 32
stlb_wq_size 32
stlb_pq_size 0
stlb_mshr_size 16
stlb_latency 8

l1i_size 32
l1i_set 64
l1i_way 8
l1i_rq_size 64
l1i_wq_size 64
l1i_pq_size 8
l1i_mshr_size 8
l1i_latency 1

l1d_size 32
l1d_set 64
l1d_way 8
l1d_rq_size 64
l1d_wq_size 64
l1d_pq_size 8
l1d_mshr_size 16
l1d_latency 4

l2c_size 512
l2c_set 1024
l2c_way 8
l2c_rq_size 32
l2c_wq_size 32
l2c_pq_size 16
l2c_mshr_size 32
l2c_latency 10

llc_size 2048
llc_set 2048
llc_way 16
llc_rq_size 32
llc_wq_size 32
llc_pq_size 32
llc_mshr_size 64
llc_latency 20

dram_channel_width 8
dram_wq_size 64
dram_rq_size 64
tRP 15
tRCD 15
tCAS 12.5
dram_dbus_turn_around_time 30
dram_write_high_wm 56
dram_write_low_wm 48
min_dram_writes_per_switch 16
dram_mtps 2400
dram_dbus_return_time 13


Heartbeat CPU  0 instructions:    1000000 cycles:     581410 heartbeat IPC: 1.71996 cumulative IPC: 1.71996 (Simulation time: 0 hr 0 min 1 sec) 
Heartbeat CPU  0 instructions:    2000003 cycles:    1163443 heartbeat IPC: 1.71812 cumulative IPC: 1.71904 (Simulation time: 0 hr 0 min 2 sec) 
Heartbeat CPU  0 instructions:    3000002 cycles:    1745475 heartbeat IPC: 1.71812 cumulative IPC: 1.71873 (Simulation time: 0 hr 0 min 3 sec) 
Heartbeat CPU  0 instructions:    4000000 cycles:    2327504 heartbeat IPC: 1.71812 cumulative IPC: 1.71858 (Simulation time: 0 hr 0 min 3 sec) 
Heartbeat CPU  0 instructions:    5000000 cycles:    2909536 heartbeat IPC: 1.71812 cumulative IPC: 1.71849 (Simulation time: 0 hr 0 min 4 sec) 
Heartbeat CPU  0 instructions:    6000000 cycles:    3491570 heartbeat IPC: 1.71811 cumulative IPC: 1.71842 (Simulation time: 0 hr 0 min 5 sec) 
Heartbeat CPU  0 instructions:    7000000 cycles:    4073601 heartbeat IPC: 1.71812 cumulative IPC: 1.71838 (Simulation time: 0 hr 0 min 6 sec) 
Heartbeat CPU  0 instructions:    8000000 cycles:    4655634 heartbeat IPC: 1.71812 cumulative IPC: 1.71835 (Simulation time: 0 hr 0 min 7 sec) 
Heartbeat CPU  0 instructions:    9000002 cycles:    5193635 heartbeat IPC: 1.85874 cumulative IPC: 1.73289 (Simulation time: 0 hr 0 min 8 sec) 
Heartbeat CPU  0 instructions:   10000002 cycles:    5717613 heartbeat IPC: 1.90848 cumulative IPC: 1.74898 (Simulation time: 0 hr 0 min 9 sec) 
Heartbeat CPU  0 instructions:   11000001 cycles:    6241615 heartbeat IPC: 1.90839 cumulative IPC: 1.76236 (Simulation time: 0 hr 0 min 10 sec) 
Heartbeat CPU  0 instructions:   12000000 cycles:    6765593 heartbeat IPC: 1.90848 cumulative IPC: 1.77368 (Simulation time: 0 hr 0 min 12 sec) 
Heartbeat CPU  0 instructions:   13000001 cycles:    7289618 heartbeat IPC: 1.90831 cumulative IPC: 1.78336 (Simulation time: 0 hr 0 min 13 sec) 
Heartbeat CPU  0 instructions:   14000001 cycles:    7813596 heartbeat IPC: 1.90848 cumulative IPC: 1.79175 (Simulation time: 0 hr 0 min 14 sec) 
Heartbeat CPU  0 instructions:   15000000 cycles:    8337598 heartbeat IPC: 1.90839 cumulative IPC: 1.79908 (Simulation time: 0 hr 0 min 16 sec) 
Heartbeat CPU  0 instructions:   16000000 cycles:    8861576 heartbeat IPC: 1.90848 cumulative IPC: 1.80555 (Simulation time: 0 hr 0 min 17 sec) 
Heartbeat CPU  0 instructions:   17000000 cycles:    9385601 heartbeat IPC: 1.90831 cumulative IPC: 1.81129 (Simulation time: 0 hr 0 min 18 sec) 
Heartbeat CPU  0 instructions:   18000000 cycles:    9909579 heartbeat IPC: 1.90848 cumulative IPC: 1.81642 (Simulation time: 0 hr 0 min 20 sec) 
Heartbeat CPU  0 instructions:   19000003 cycles:   10433580 heartbeat IPC: 1.90840 cumulative IPC: 1.82104 (Simulation time: 0 hr 0 min 21 sec) 
Heartbeat CPU  0 instructions:   20000000 cycles:   10957558 heartbeat IPC: 1.90847 cumulative IPC: 1.82522 (Simulation time: 0 hr 0 min 22 sec) 
Heartbeat CPU  0 instructions:   21000003 cycles:   11481583 heartbeat IPC: 1.90831 cumulative IPC: 1.82902 (Simulation time: 0 hr 0 min 23 sec) 
Heartbeat CPU  0 instructions:   22000003 cycles:   12005561 heartbeat IPC: 1.90848 cumulative IPC: 1.83248 (Simulation time: 0 hr 0 min 25 sec) 
Heartbeat CPU  0 instructions:   23000000 cycles:   12521102 heartbeat IPC: 1.93970 cumulative IPC: 1.83690 (Simulation time: 0 hr 0 min 26 sec) 
Heartbeat CPU  0 instructions:   24000000 cycles:   12941383 heartbeat IPC: 2.37936 cumulative IPC: 1.85452 (Simulation time: 0 hr 0 min 27 sec) 
Heartbeat CPU  0 instructions:   25000000 cycles:   13361659 heartbeat IPC: 2.37939 cumulative IPC: 1.87103 (Simulation time: 0 hr 0 min 28 sec) 
Heartbeat CPU  0 instructions:   26000000 cycles:   13781945 heartbeat IPC: 2.37933 cumulative IPC: 1.88653 (Simulation time: 0 hr 0 min 28 sec) 
Heartbeat CPU  0 instructions:   27000000 cycles:   14202256 heartbeat IPC: 2.37919 cumulative IPC: 1.90111 (Simulation time: 0 hr 0 min 29 sec) 
Heartbeat CPU  0 instructions:   28000000 cycles:   14622564 heartbeat IPC: 2.37921 cumulative IPC: 1.91485 (Simulation time: 0 hr 0 min 30 sec) 
Heartbeat CPU  0 instructions:   29000002 cycles:   15042842 heartbeat IPC: 2.37938 cumulative IPC: 1.92783 (Simulation time: 0 hr 0 min 30 sec) 
Heartbeat CPU  0 instructions:   30000003 cycles:   15463108 heartbeat IPC: 2.37945 cumulative IPC: 1.94010 (Simulation time: 0 hr 0 min 31 sec) 
Heartbeat CPU  0 instructions:   31000001 cycles:   15883402 heartbeat IPC: 2.37928 cumulative IPC: 1.95172 (Simulation time: 0 hr 0 min 32 sec) 
Heartbeat CPU  0 instructions:   32000000 cycles:   16303721 heartbeat IPC: 2.37914 cumulative IPC: 1.96274 (Simulation time: 0 hr 0 min 33 sec) 
Heartbeat CPU  0 instructions:   33000003 cycles:   16723995 heartbeat IPC: 2.37941 cumulative IPC: 1.97321 (Simulation time: 0 hr 0 min 33 sec) 
Heartbeat CPU  0 instructions:   34000000 cycles:   17144257 heartbeat IPC: 2.37946 cumulative IPC: 1.98317 (Simulation time: 0 hr 0 min 34 sec) 
Heartbeat CPU  0 instructions:   35000002 cycles:   17564546 heartbeat IPC: 2.37932 cumulative IPC: 1.99265 (Simulation time: 0 hr 0 min 35 sec) 
Heartbeat CPU  0 instructions:   36000000 cycles:   17984859 heartbeat IPC: 2.37917 cumulative IPC: 2.00168 (Simulation time: 0 hr 0 min 35 sec) 
Heartbeat CPU  0 instructions:   37000000 cycles:   18405175 heartbeat IPC: 2.37916 cumulative IPC: 2.01030 (Simulation time: 0 hr 0 min 36 sec) 
Heartbeat CPU  0 instructions:   38000002 cycles:   18825444 heartbeat IPC: 2.37943 cumulative IPC: 2.01854 (Simulation time: 0 hr 0 min 37 sec) 
Heartbeat CPU  0 instructions:   39000000 cycles:   19245727 heartbeat IPC: 2.37934 cumulative IPC: 2.02642 (Simulation time: 0 hr 0 min 38 sec) 
Heartbeat CPU  0 instructions:   40000000 cycles:   19666021 heartbeat IPC: 2.37929 cumulative IPC: 2.03397 (Simulation time: 0 hr 0 min 38 sec) 
Heartbeat CPU  0 instructions:   41000002 cycles:   20086357 heartbeat IPC: 2.37905 cumulative IPC: 2.04119 (Simulation time: 0 hr 0 min 39 sec) 
Heartbeat CPU  0 instructions:   42000003 cycles:   20506627 heartbeat IPC: 2.37943 cumulative IPC: 2.04812 (Simulation time: 0 hr 0 min 40 sec) 
Heartbeat CPU  0 instructions:   43000001 cycles:   20926897 heartbeat IPC: 2.37942 cumulative IPC: 2.05477 (Simulation time: 0 hr 0 min 41 sec) 
Heartbeat CPU  0 instructions:   44000000 cycles:   21347167 heartbeat IPC: 2.37942 cumulative IPC: 2.06116 (Simulation time: 0 hr 0 min 41 sec) 
Heartbeat CPU  0 instructions:   45000001 cycles:   21767470 heartbeat IPC: 2.37924 cumulative IPC: 2.06731 (Simulation time: 0 hr 0 min 42 sec) 
Heartbeat CPU  0 instructions:   46000001 cycles:   22187777 heartbeat IPC: 2.37921 cumulative IPC: 2.07321 (Simulation time: 0 hr 0 min 43 sec) 
Heartbeat CPU  0 instructions:   47000000 cycles:   22767345 heartbeat IPC: 1.72542 cumulative IPC: 2.06436 (Simulation time: 0 hr 0 min 44 sec) 
Heartbeat CPU  0 instructions:   48000000 cycles:   23350140 heartbeat IPC: 1.71587 cumulative IPC: 2.05566 (Simulation time: 0 hr 0 min 44 sec) 
Heartbeat CPU  0 instructions:   49000000 cycles:   23932926 heartbeat IPC: 1.71590 cumulative IPC: 2.04739 (Simulation time: 0 hr 0 min 45 sec) 
Heartbeat CPU  0 instructions:   50000002 cycles:   24515711 heartbeat IPC: 1.71590 cumulative IPC: 2.03951 (Simulation time: 0 hr 0 min 46 sec) 

Warmup complete CPU  0 instructions:   50000002 cycles:   24515711 (Simulation time: 0 hr 0 min 46 sec) 

Heartbeat CPU  0 instructions:   51000002 cycles:   25151081 heartbeat IPC: 1.57389 cumulative IPC: 1.57389 (Simulation time: 0 hr 0 min 47 sec) 
Heartbeat CPU  0 instructions:   52000000 cycles:   25785190 heartbeat IPC: 1.57701 cumulative IPC: 1.57545 (Simulation time: 0 hr 0 min 49 sec) 
Heartbeat CPU  0 instructions:   53000000 cycles:   26419612 heartbeat IPC: 1.57624 cumulative IPC: 1.57571 (Simulation time: 0 hr 0 min 50 sec) 
Heartbeat CPU  0 instructions:   54000003 cycles:   27053725 heartbeat IPC: 1.57701 cumulative IPC: 1.57604 (Simulation time: 0 hr 0 min 51 sec) 
Heartbeat CPU  0 instructions:   55000002 cycles:   27687905 heartbeat IPC: 1.57684 cumulative IPC: 1.57620 (Simulation time: 0 hr 0 min 53 sec) 
Heartbeat CPU  0 instructions:   56000000 cycles:   28321977 heartbeat IPC: 1.57710 cumulative IPC: 1.57635 (Simulation time: 0 hr 0 min 54 sec) 
Heartbeat CPU  0 instructions:   57000000 cycles:   28955960 heartbeat IPC: 1.57733 cumulative IPC: 1.57649 (Simulation time: 0 hr 0 min 55 sec) 
Heartbeat CPU  0 instructions:   58000002 cycles:   29590171 heartbeat IPC: 1.57677 cumulative IPC: 1.57652 (Simulation time: 0 hr 0 min 57 sec) 
Heartbeat CPU  0 instructions:   59000001 cycles:   30225371 heartbeat IPC: 1.57431 cumulative IPC: 1.57628 (Simulation time: 0 hr 0 min 58 sec) 
Heartbeat CPU  0 instructions:   60000000 cycles:   30859675 heartbeat IPC: 1.57653 cumulative IPC: 1.57630 (Simulation time: 0 hr 0 min 59 sec) 
Heartbeat CPU  0 instructions:   61000003 cycles:   31493872 heartbeat IPC: 1.57680 cumulative IPC: 1.57635 (Simulation time: 0 hr 1 min 1 sec) 
Heartbeat CPU  0 instructions:   62000002 cycles:   32128322 heartbeat IPC: 1.57617 cumulative IPC: 1.57633 (Simulation time: 0 hr 1 min 2 sec) 
Heartbeat CPU  0 instructions:   63000001 cycles:   32762595 heartbeat IPC: 1.57661 cumulative IPC: 1.57635 (Simulation time: 0 hr 1 min 3 sec) 
Heartbeat CPU  0 instructions:   64000000 cycles:   33396509 heartbeat IPC: 1.57750 cumulative IPC: 1.57643 (Simulation time: 0 hr 1 min 4 sec) 
Heartbeat CPU  0 instructions:   65000003 cycles:   34030700 heartbeat IPC: 1.57682 cumulative IPC: 1.57646 (Simulation time: 0 hr 1 min 6 sec) 
Heartbeat CPU  0 instructions:   66000002 cycles:   34665084 heartbeat IPC: 1.57633 cumulative IPC: 1.57645 (Simulation time: 0 hr 1 min 7 sec) 
Heartbeat CPU  0 instructions:   67000001 cycles:   35299181 heartbeat IPC: 1.57704 cumulative IPC: 1.57649 (Simulation time: 0 hr 1 min 8 sec) 
Heartbeat CPU  0 instructions:   68000000 cycles:   35933100 heartbeat IPC: 1.57749 cumulative IPC: 1.57654 (Simulation time: 0 hr 1 min 10 sec) 
Heartbeat CPU  0 instructions:   69000002 cycles:   36567449 heartbeat IPC: 1.57642 cumulative IPC: 1.57654 (Simulation time: 0 hr 1 min 11 sec) 
Heartbeat CPU  0 instructions:   70000003 cycles:   38003561 heartbeat IPC: 0.69633 cumulative IPC: 1.48282 (Simulation time: 0 hr 1 min 13 sec) 
Heartbeat CPU  0 instructions:   71000002 cycles:   39838982 heartbeat IPC: 0.54483 cumulative IPC: 1.37046 (Simulation time: 0 hr 1 min 15 sec) 
Heartbeat CPU  0 instructions:   72000000 cycles:   41676964 heartbeat IPC: 0.54407 cumulative IPC: 1.28196 (Simulation time: 0 hr 1 min 17 sec) 
Heartbeat CPU  0 instructions:   73000002 cycles:   43587197 heartbeat IPC: 0.52350 cumulative IPC: 1.20599 (Simulation time: 0 hr 1 min 19 sec) 
Heartbeat CPU  0 instructions:   74000003 cycles:   45553925 heartbeat IPC: 0.50846 cumulative IPC: 1.14078 (Simulation time: 0 hr 1 min 21 sec) 
Heartbeat CPU  0 instructions:   75000003 cycles:   47584328 heartbeat IPC: 0.49251 cumulative IPC: 1.08372 (Simulation time: 0 hr 1 min 23 sec) 
Heartbeat CPU  0 instructions:   76000000 cycles:   49683451 heartbeat IPC: 0.47639 cumulative IPC: 1.03307 (Simulation time: 0 hr 1 min 25 sec) 
Heartbeat CPU  0 instructions:   77000003 cycles:   51824439 heartbeat IPC: 0.46708 cumulative IPC: 0.98869 (Simulation time: 0 hr 1 min 27 sec) 
Heartbeat CPU  0 instructions:   78000002 cycles:   53951484 heartbeat IPC: 0.47014 cumulative IPC: 0.95122 (Simulation time: 0 hr 1 min 29 sec) 
Heartbeat CPU  0 instructions:   79000002 cycles:   56049025 heartbeat IPC: 0.47675 cumulative IPC: 0.91966 (Simulation time: 0 hr 1 min 31 sec) 
Heartbeat CPU  0 instructions:   80000000 cycles:   58043686 heartbeat IPC: 0.50134 cumulative IPC: 0.89478 (Simulation time: 0 hr 1 min 33 sec) 
Heartbeat CPU  0 instructions:   81000002 cycles:   60025971 heartbeat IPC: 0.50447 cumulative IPC: 0.87299 (Simulation time: 0 hr 1 min 35 sec) 
Heartbeat CPU  0 instructions:   82000002 cycles:   61964733 heartbeat IPC: 0.51579 cumulative IPC: 0.85449 (Simulation time: 0 hr 1 min 37 sec) 
Heartbeat CPU  0 instructions:   83000002 cycles:   63900625 heartbeat IPC: 0.51656 cumulative IPC: 0.83788 (Simulation time: 0 hr 1 min 39 sec) 
Heartbeat CPU  0 instructions:   84000000 cycles:   65668289 heartbeat IPC: 0.56572 cumulative IPC: 0.82619 (Simulation time: 0 hr 1 min 41 sec) 
Heartbeat CPU  0 instructions:   85000003 cycles:   66494422 heartbeat IPC: 1.21046 cumulative IPC: 0.83376 (Simulation time: 0 hr 1 min 42 sec) 
Heartbeat CPU  0 instructions:   86000001 cycles:   67220484 heartbeat IPC: 1.37729 cumulative IPC: 0.84300 (Simulation time: 0 hr 1 min 44 sec) 
Heartbeat CPU  0 instructions:   87000003 cycles:   67945389 heartbeat IPC: 1.37949 cumulative IPC: 0.85195 (Simulation time: 0 hr 1 min 45 sec) 
Heartbeat CPU  0 instructions:   88000000 cycles:   68670762 heartbeat IPC: 1.37860 cumulative IPC: 0.86060 (Simulation time: 0 hr 1 min 46 sec) 
Heartbeat CPU  0 instructions:   89000001 cycles:   69400663 heartbeat IPC: 1.37005 cumulative IPC: 0.86889 (Simulation time: 0 hr 1 min 48 sec) 
Heartbeat CPU  0 instructions:   90000002 cycles:   70131274 heartbeat IPC: 1.36872 cumulative IPC: 0.87689 (Simulation time: 0 hr 1 min 49 sec) 
Heartbeat CPU  0 instructions:   91000000 cycles:   70861091 heartbeat IPC: 1.37020 cumulative IPC: 0.88466 (Simulation time: 0 hr 1 min 50 sec) 
Heartbeat CPU  0 instructions:   92000000 cycles:   71595744 heartbeat IPC: 1.36119 cumulative IPC: 0.89210 (Simulation time: 0 hr 1 min 52 sec) 
Heartbeat CPU  0 instructions:   93000002 cycles:   72332577 heartbeat IPC: 1.35716 cumulative IPC: 0.89926 (Simulation time: 0 hr 1 min 53 sec) 
Heartbeat CPU  0 instructions:   94000000 cycles:   73069970 heartbeat IPC: 1.35613 cumulative IPC: 0.90620 (Simulation time: 0 hr 1 min 54 sec) 
Heartbeat CPU  0 instructions:   95000002 cycles:   73806723 heartbeat IPC: 1.35731 cumulative IPC: 0.91295 (Simulation time: 0 hr 1 min 56 sec) 
Heartbeat CPU  0 instructions:   96000000 cycles:   74544676 heartbeat IPC: 1.35510 cumulative IPC: 0.91947 (Simulation time: 0 hr 1 min 57 sec) 
Heartbeat CPU  0 instructions:   97000000 cycles:   75289751 heartbeat IPC: 1.34215 cumulative IPC: 0.92567 (Simulation time: 0 hr 1 min 58 sec) 
Heartbeat CPU  0 instructions:   98000001 cycles:   76024393 heartbeat IPC: 1.36121 cumulative IPC: 0.93188 (Simulation time: 0 hr 2 min 0 sec) 
Heartbeat CPU  0 instructions:   99000003 cycles:   76763496 heartbeat IPC: 1.35299 cumulative IPC: 0.93784 (Simulation time: 0 hr 2 min 1 sec) 
Heartbeat CPU  0 instructions:  100000000 cycles:   77496906 heartbeat IPC: 1.36349 cumulative IPC: 0.94373 (Simulation time: 0 hr 2 min 2 sec) 
Heartbeat CPU  0 instructions:  101000003 cycles:   78229103 heartbeat IPC: 1.36576 cumulative IPC: 0.94948 (Simulation time: 0 hr 2 min 4 sec) 
Heartbeat CPU  0 instructions:  102000003 cycles:   78961346 heartbeat IPC: 1.36567 cumulative IPC: 0.95508 (Simulation time: 0 hr 2 min 5 sec) 
Heartbeat CPU  0 instructions:  103000001 cycles:   79695355 heartbeat IPC: 1.36238 cumulative IPC: 0.96050 (Simulation time: 0 hr 2 min 6 sec) 
Heartbeat CPU  0 instructions:  104000000 cycles:   80428099 heartbeat IPC: 1.36473 cumulative IPC: 0.96580 (Simulation time: 0 hr 2 min 8 sec) 
Heartbeat CPU  0 instructions:  105000000 cycles:   81156790 heartbeat IPC: 1.37232 cumulative IPC: 0.97103 (Simulation time: 0 hr 2 min 9 sec) 
Heartbeat CPU  0 instructions:  106000002 cycles:   81887437 heartbeat IPC: 1.36865 cumulative IPC: 0.97609 (Simulation time: 0 hr 2 min 10 sec) 
Heartbeat CPU  0 instructions:  107000001 cycles:   82621457 heartbeat IPC: 1.36236 cumulative IPC: 0.98097 (Simulation time: 0 hr 2 min 11 sec) 
Heartbeat CPU  0 instructions:  108000000 cycles:   83391037 heartbeat IPC: 1.29941 cumulative IPC: 0.98513 (Simulation time: 0 hr 2 min 13 sec) 
Heartbeat CPU  0 instructions:  109000000 cycles:   84170343 heartbeat IPC: 1.28319 cumulative IPC: 0.98903 (Simulation time: 0 hr 2 min 14 sec) 
Heartbeat CPU  0 instructions:  110000001 cycles:   84948032 heartbeat IPC: 1.28586 cumulative IPC: 0.99285 (Simulation time: 0 hr 2 min 15 sec) 
Heartbeat CPU  0 instructions:  111000001 cycles:   85722983 heartbeat IPC: 1.29040 cumulative IPC: 0.99661 (Simulation time: 0 hr 2 min 17 sec) 
Heartbeat CPU  0 instructions:  112000000 cycles:   86503203 heartbeat IPC: 1.28169 cumulative IPC: 1.00020 (Simulation time: 0 hr 2 min 18 sec) 
Heartbeat CPU  0 instructions:  113000002 cycles:   87284813 heartbeat IPC: 1.27941 cumulative IPC: 1.00368 (Simulation time: 0 hr 2 min 19 sec) 
Heartbeat CPU  0 instructions:  114000002 cycles:   88069440 heartbeat IPC: 1.27449 cumulative IPC: 1.00702 (Simulation time: 0 hr 2 min 21 sec) 
Heartbeat CPU  0 instructions:  115000003 cycles:   88853445 heartbeat IPC: 1.27550 cumulative IPC: 1.01029 (Simulation time: 0 hr 2 min 22 sec) 
Heartbeat CPU  0 instructions:  116000000 cycles:   89639871 heartbeat IPC: 1.27157 cumulative IPC: 1.01345 (Simulation time: 0 hr 2 min 24 sec) 
Heartbeat CPU  0 instructions:  117000000 cycles:   90429084 heartbeat IPC: 1.26709 cumulative IPC: 1.01649 (Simulation time: 0 hr 2 min 25 sec) 
Heartbeat CPU  0 instructions:  118000000 cycles:   91218840 heartbeat IPC: 1.26621 cumulative IPC: 1.01944 (Simulation time: 0 hr 2 min 26 sec) 
Heartbeat CPU  0 instructions:  119000001 cycles:   92010495 heartbeat IPC: 1.26318 cumulative IPC: 1.02230 (Simulation time: 0 hr 2 min 28 sec) 
Heartbeat CPU  0 instructions:  120000000 cycles:   92802936 heartbeat IPC: 1.26192 cumulative IPC: 1.02508 (Simulation time: 0 hr 2 min 29 sec) 
Heartbeat CPU  0 instructions:  121000000 cycles:   93590457 heartbeat IPC: 1.26981 cumulative IPC: 1.02787 (Simulation time: 0 hr 2 min 30 sec) 
Heartbeat CPU  0 instructions:  122000002 cycles:   94382095 heartbeat IPC: 1.26321 cumulative IPC: 1.03054 (Simulation time: 0 hr 2 min 32 sec) 
Heartbeat CPU  0 instructions:  123000002 cycles:   95165768 heartbeat IPC: 1.27604 cumulative IPC: 1.03326 (Simulation time: 0 hr 2 min 33 sec) 
Heartbeat CPU  0 instructions:  124000000 cycles:   95952217 heartbeat IPC: 1.27154 cumulative IPC: 1.03588 (Simulation time: 0 hr 2 min 34 sec) 
Heartbeat CPU  0 instructions:  125000003 cycles:   96735304 heartbeat IPC: 1.27700 cumulative IPC: 1.03850 (Simulation time: 0 hr 2 min 36 sec) 
Heartbeat CPU  0 instructions:  126000000 cycles:   97521538 heartbeat IPC: 1.27188 cumulative IPC: 1.04101 (Simulation time: 0 hr 2 min 37 sec) 
Heartbeat CPU  0 instructions:  127000000 cycles:   98306333 heartbeat IPC: 1.27422 cumulative IPC: 1.04349 (Simulation time: 0 hr 2 min 38 sec) 
Heartbeat CPU  0 instructions:  128000000 cycles:   99087082 heartbeat IPC: 1.28082 cumulative IPC: 1.04598 (Simulation time: 0 hr 2 min 40 sec) 
Heartbeat CPU  0 instructions:  129000001 cycles:   99870532 heartbeat IPC: 1.27641 cumulative IPC: 1.04837 (Simulation time: 0 hr 2 min 41 sec) 
Heartbeat CPU  0 instructions:  130000001 cycles:  100653601 heartbeat IPC: 1.27703 cumulative IPC: 1.05073 (Simulation time: 0 hr 2 min 42 sec) 
Heartbeat CPU  0 instructions:  131000000 cycles:  102237151 heartbeat IPC: 0.63149 cumulative IPC: 1.04218 (Simulation time: 0 hr 2 min 44 sec) 
Heartbeat CPU  0 instructions:  132000000 cycles:  104038449 heartbeat IPC: 0.55516 cumulative IPC: 1.03115 (Simulation time: 0 hr 2 min 46 sec) 
Heartbeat CPU  0 instructions:  133000000 cycles:  105873236 heartbeat IPC: 0.54502 cumulative IPC: 1.02019 (Simulation time: 0 hr 2 min 48 sec) 
Heartbeat CPU  0 instructions:  134000002 cycles:  107766708 heartbeat IPC: 0.52813 cumulative IPC: 1.00900 (Simulation time: 0 hr 2 min 50 sec) 
Heartbeat CPU  0 instructions:  135000000 cycles:  109745228 heartbeat IPC: 0.50543 cumulative IPC: 0.99731 (Simulation time: 0 hr 2 min 52 sec) 
Heartbeat CPU  0 instructions:  136000000 cycles:  111772263 heartbeat IPC: 0.49333 cumulative IPC: 0.98560 (Simulation time: 0 hr 2 min 54 sec) 
Heartbeat CPU  0 instructions:  137000001 cycles:  113856163 heartbeat IPC: 0.47987 cumulative IPC: 0.97380 (Simulation time: 0 hr 2 min 56 sec) 
Heartbeat CPU  0 instructions:  138000000 cycles:  115981800 heartbeat IPC: 0.47045 cumulative IPC: 0.96211 (Simulation time: 0 hr 2 min 59 sec) 
Heartbeat CPU  0 instructions:  139000003 cycles:  118082367 heartbeat IPC: 0.47606 cumulative IPC: 0.95119 (Simulation time: 0 hr 3 min 1 sec) 
Heartbeat CPU  0 instructions:  140000000 cycles:  120151728 heartbeat IPC: 0.48324 cumulative IPC: 0.94107 (Simulation time: 0 hr 3 min 3 sec) 
Heartbeat CPU  0 instructions:  141000001 cycles:  122122445 heartbeat IPC: 0.50743 cumulative IPC: 0.93231 (Simulation time: 0 hr 3 min 5 sec) 
Heartbeat CPU  0 instructions:  142000001 cycles:  124104940 heartbeat IPC: 0.50441 cumulative IPC: 0.92379 (Simulation time: 0 hr 3 min 7 sec) 
Heartbeat CPU  0 instructions:  143000001 cycles:  126045260 heartbeat IPC: 0.51538 cumulative IPC: 0.91599 (Simulation time: 0 hr 3 min 9 sec) 
Heartbeat CPU  0 instructions:  144000000 cycles:  127958485 heartbeat IPC: 0.52268 cumulative IPC: 0.90871 (Simulation time: 0 hr 3 min 11 sec) 
Heartbeat CPU  0 instructions:  145000002 cycles:  129654387 heartbeat IPC: 0.58966 cumulative IPC: 0.90357 (Simulation time: 0 hr 3 min 13 sec) 
Heartbeat CPU  0 instructions:  146000000 cycles:  130443235 heartbeat IPC: 1.26767 cumulative IPC: 0.90628 (Simulation time: 0 hr 3 min 14 sec) 
Heartbeat CPU  0 instructions:  147000000 cycles:  131169831 heartbeat IPC: 1.37628 cumulative IPC: 0.90948 (Simulation time: 0 hr 3 min 16 sec) 
Heartbeat CPU  0 instructions:  148000000 cycles:  131896589 heartbeat IPC: 1.37597 cumulative IPC: 0.91264 (Simulation time: 0 hr 3 min 17 sec) 
Heartbeat CPU  0 instructions:  149000000 cycles:  132621273 heartbeat IPC: 1.37991 cumulative IPC: 0.91577 (Simulation time: 0 hr 3 min 18 sec) 
Heartbeat CPU  0 instructions:  150000001 cycles:  133352361 heartbeat IPC: 1.36783 cumulative IPC: 0.91881 (Simulation time: 0 hr 3 min 20 sec) 
Finished CPU 0 instructions: 100000003 cycles: 108836651 cumulative IPC: 0.91881 (Simulation time: 0 hr 3 min 20 sec) 

ChampSim completed all CPUs

[ROI Statistics]
Core_0_instructions 100000003
Core_0_cycles 108836651
Core_0_IPC 0.91881

Core_0_branch_prediction_accuracy 99.68898
Core_0_branch_MPKI 0.52932
Core_0_average_ROB_occupancy_at_mispredict 207.95934

Core_0_L1D_total_access 22983872
Core_0_L1D_total_hit 20332192
Core_0_L1D_total_miss 2651680
Core_0_L1D_loads 11810266
Core_0_L1D_load_hit 11283114
Core_0_L1D_load_miss 527152
Core_0_L1D_RFOs 4247292
Core_0_L1D_RFO_hit 4247272
Core_0_L1D_RFO_miss 20
Core_0_L1D_prefetches 6926314
Core_0_L1D_prefetch_hit 4801806
Core_0_L1D_prefetch_miss 2124508
Core_0_L1D_writebacks 0
Core_0_L1D_writeback_hit 0
Core_0_L1D_writeback_miss 0
Core_0_L1D_prefetch_requested 24238089
Core_0_L1D_prefetch_issued 23170701
Core_0_L1D_prefetch_useful 3430010
Core_0_L1D_prefetch_useless 55
Core_0_L1D_prefetch_late 462970
Core_0_L1D_average_miss_latency 14732024.18542

Core_0_L1I_total_access 30638584
Core_0_L1I_total_hit 30638584
Core_0_L1I_total_miss 0
Core_0_L1I_loads 30638584
Core_0_L1I_load_hit 30638584
Core_0_L1I_load_miss 0
Core_0_L1I_RFOs 0
Core_0_L1I_RFO_hit 0
Core_0_L1I_RFO_miss 0
Core_0_L1I_prefetches 0
Core_0_L1I_prefetch_hit 0
Core_0_L1I_prefetch_miss 0
Core_0_L1I_writebacks 0
Core_0_L1I_writeback_hit 0
Core_0_L1I_writeback_miss 0
Core_0_L1I_prefetch_requested 0
Core_0_L1I_prefetch_issued 0
Core_0_L1I_prefetch_useful 0
Core_0_L1I_prefetch_useless 0
Core_0_L1I_prefetch_late 0
Core_0_L1I_average_miss_latency -nan

Core_0_L2C_total_access 3946527
Core_0_L2C_total_hit 1294825
Core_0_L2C_total_miss 2651702
Core_0_L2C_loads 64182
Core_0_L2C_load_hit 9
Core_0_L2C_load_miss 64173
Core_0_L2C_RFOs 20
Core_0_L2C_RFO_hit 0
Core_0_L2C_RFO_miss 20
Core_0_L2C_prefetches 2780811
Core_0_L2C_prefetch_hit 193302
Core_0_L2C_prefetch_miss 2587509
Core_0_L2C_writebacks 1101514
Core_0_L2C_writeback_hit 1101514
Core_0_L2C_writeback_miss 0
Core_0_L2C_prefetch_requested 8146850
Core_0_L2C_prefetch_issued 8146850
Core_0_L2C_prefetch_useful 22
Core_0_L2C_prefetch_useless 3885073
Core_0_L2C_prefetch_late 2
Core_0_L2C_average_miss_latency 257.74711

Core_0_LLC_total_access 3752978
Core_0_LLC_total_hit 221290
Core_0_LLC_total_miss 3531688
Core_0_LLC_loads 64172
Core_0_LLC_load_hit 3746
Core_0_LLC_load_miss 60426
Core_0_LLC_RFOs 20
Core_0_LLC_RFO_hit 0
Core_0_LLC_RFO_miss 20
Core_0_LLC_prefetches 2587512
Core_0_LLC_prefetch_hit 152798
Core_0_LLC_prefetch_miss 2434714
Core_0_LLC_writebacks 1101274
Core_0_LLC_writeback_hit 64746
Core_0_LLC_writeback_miss 1036528
Core_0_LLC_prefetch_requested 0
Core_0_LLC_prefetch_issued 0
Core_0_LLC_prefetch_useful 339
Core_0_LLC_prefetch_useless 3664390
Core_0_LLC_prefetch_late 0
Core_0_LLC_average_miss_latency 170.91279

Core_0_major_page_fault 0
Core_0_minor_page_fault 8199

CPU 0 L1D IPCP prefetcher final stats
CPU 0 L2C IPCP prefetcher final stats
Channel_0_RQ_row_buffer_hit 1582576
Channel_0_RQ_row_buffer_miss 912584
Channel_0_WQ_row_buffer_hit 299963
Channel_0_WQ_row_buffer_miss 736502
Channel_0_WQ_full 66
Channel_0_dbus_congested 2883068

avg_congested_cycle 11
